--------- BEAMDYN with OpenFAST INPUT FILE -------------------------------------------
Generated with AeroElasticSE FAST driver
---------------------- SIMULATION CONTROL --------------------------------------
True                   Echo        - Echo input data to "<RootName>.ech" (flag)
True                   QuasiStaticInit - Use quasistatic pre-conditioning with centripetal accelerations in initialization (flag) [dynamic solve only]
0                      rhoinf      - Numerical damping parameter for generalized-alpha integrator
2                      quadrature  - Quadrature method: 1=Gaussian; 2=Trapezoidal (switch)
"DEFAULT"              refine      - Refinement factor for trapezoidal quadrature (-). DEFAULT = 1 [used only when quadrature=2]
"DEFAULT"              n_fact      - Factorization frequency (-). DEFAULT = 5
"DEFAULT"                DTBeam      - Time step size (s).
"DEFAULT"                load_retries - Number of factored load retries before quitting the aimulation
"DEFAULT"                NRMax       - Max number of iterations in Newton-Ralphson algorithm (-). DEFAULT = 10
"DEFAULT"                stop_tol    - Tolerance for stopping criterion (-)
"DEFAULT"              tngt_stf_fd - Flag to use finite differenced tangent stiffness matrix (-)
"DEFAULT"              tngt_stf_comp - Flag to compare analytical finite differenced tangent stiffness matrix  (-)
"DEFAULT"                tngt_stf_pert - perturbation size for finite differencing (-)
"DEFAULT"                tngt_stf_difftol - Maximum allowable relative difference between analytical and fd tangent stiffness (-)
True                   RotStates   - Orient states in the rotating frame during linearization? (flag) [used only when linearizing]
---------------------- GEOMETRY PARAMETER --------------------------------------
1                      member_total - Total number of members (-)
50                     kp_total    - Total number of key points (-) [must be at least 3]
1 50                               - Member number; Number of key points in this member
        kp_xr                 kp_yr                 kp_zr             initial_twist    
         (m)                   (m)                   (m)                  (deg)        
-0.00000000000000e+00  0.00000000000000e+00  0.00000000000000e+00  2.00020000000000e+01
 0.00000000000000e+00  0.00000000000000e+00  1.83667000000000e+00  1.85212000000000e+01
 0.00000000000000e+00  0.00000000000000e+00  3.67333000000000e+00  1.70800000000000e+01
 0.00000000000000e+00  0.00000000000000e+00  5.51000000000000e+00  1.57268000000000e+01
 0.00000000000000e+00  0.00000000000000e+00  7.34666000000000e+00  1.44715000000000e+01
 0.00000000000000e+00  0.00000000000000e+00  9.18333000000000e+00  1.32762000000000e+01
 0.00000000000000e+00  0.00000000000000e+00  1.10200000000000e+01  1.22560000000000e+01
 0.00000000000000e+00  0.00000000000000e+00  1.28567000000000e+01  1.12866000000000e+01
 0.00000000000000e+00  0.00000000000000e+00  1.46933000000000e+01  1.04358000000000e+01
 0.00000000000000e+00  0.00000000000000e+00  1.65300000000000e+01  9.63040000000000e+00
 0.00000000000000e+00  0.00000000000000e+00  1.83667000000000e+01  8.86196000000000e+00
 0.00000000000000e+00  0.00000000000000e+00  2.02033000000000e+01  8.19041000000000e+00
 0.00000000000000e+00  0.00000000000000e+00  2.20400000000000e+01  7.55922000000000e+00
 0.00000000000000e+00  0.00000000000000e+00  2.38767000000000e+01  7.04733000000000e+00
 0.00000000000000e+00  0.00000000000000e+00  2.57133000000000e+01  6.60996000000000e+00
 0.00000000000000e+00  0.00000000000000e+00  2.75500000000000e+01  6.25246000000000e+00
 0.00000000000000e+00  0.00000000000000e+00  2.93867000000000e+01  5.96518000000000e+00
 0.00000000000000e+00  0.00000000000000e+00  3.12233000000000e+01  5.70037000000000e+00
 0.00000000000000e+00  0.00000000000000e+00  3.30600000000000e+01  5.47141000000000e+00
 0.00000000000000e+00  0.00000000000000e+00  3.48967000000000e+01  5.23989000000000e+00
 0.00000000000000e+00  0.00000000000000e+00  3.67333000000000e+01  5.00474000000000e+00
 0.00000000000000e+00  0.00000000000000e+00  3.85700000000000e+01  4.73830000000000e+00
 0.00000000000000e+00  0.00000000000000e+00  4.04067000000000e+01  4.45913000000000e+00
 0.00000000000000e+00  0.00000000000000e+00  4.22433000000000e+01  4.15741000000000e+00
 0.00000000000000e+00  0.00000000000000e+00  4.40800000000000e+01  3.85324000000000e+00
 0.00000000000000e+00  0.00000000000000e+00  4.59167000000000e+01  3.54441000000000e+00
 0.00000000000000e+00  0.00000000000000e+00  4.77533000000000e+01  3.23937000000000e+00
 0.00000000000000e+00  0.00000000000000e+00  4.95900000000000e+01  2.93633000000000e+00
 0.00000000000000e+00  0.00000000000000e+00  5.14267000000000e+01  2.65264000000000e+00
 0.00000000000000e+00  0.00000000000000e+00  5.32633000000000e+01  2.37785000000000e+00
 0.00000000000000e+00  0.00000000000000e+00  5.51000000000000e+01  2.12462000000000e+00
 0.00000000000000e+00  0.00000000000000e+00  5.69367000000000e+01  1.87492000000000e+00
 0.00000000000000e+00  0.00000000000000e+00  5.87733000000000e+01  1.62769000000000e+00
 0.00000000000000e+00  0.00000000000000e+00  6.06100000000000e+01  1.36040000000000e+00
 0.00000000000000e+00  0.00000000000000e+00  6.24466000000000e+01  1.07936000000000e+00
 0.00000000000000e+00  0.00000000000000e+00  6.42833000000000e+01  7.54539000000000e-01
 0.00000000000000e+00  0.00000000000000e+00  6.61200000000000e+01  3.65531000000000e-01
 0.00000000000000e+00  0.00000000000000e+00  6.79566000000000e+01 -8.33855000000000e-02
 0.00000000000000e+00  0.00000000000000e+00  6.97933000000000e+01 -5.83827000000000e-01
 0.00000000000000e+00  0.00000000000000e+00  7.16300000000000e+01 -1.08976000000000e+00
 0.00000000000000e+00  0.00000000000000e+00  7.34666000000000e+01 -1.56289000000000e+00
 0.00000000000000e+00  0.00000000000000e+00  7.53033000000000e+01 -1.97499000000000e+00
 0.00000000000000e+00  0.00000000000000e+00  7.71400000000000e+01 -2.31199000000000e+00
 0.00000000000000e+00  0.00000000000000e+00  7.89766000000000e+01 -2.58530000000000e+00
 0.00000000000000e+00  0.00000000000000e+00  8.08133000000000e+01 -2.83612000000000e+00
 0.00000000000000e+00  0.00000000000000e+00  8.26500000000000e+01 -3.05674000000000e+00
 0.00000000000000e+00  0.00000000000000e+00  8.44866000000000e+01 -3.25832000000000e+00
 0.00000000000000e+00  0.00000000000000e+00  8.63233000000000e+01 -3.42872000000000e+00
 0.00000000000000e+00  0.00000000000000e+00  8.81600000000000e+01 -3.55222000000000e+00
-0.00000000000000e+00  0.00000000000000e+00  8.99966000000000e+01 -3.65461000000000e+00
---------------------- MESH PARAMETER ------------------------------------------
5                      order_elem  - Order of interpolation (basis) function (-)
---------------------- MATERIAL PARAMETER --------------------------------------
"/Users/pbortolo/work/3_projects/3_BAR/BAR_Designs/BAR4/OpenFAST/BAR4_BeamDyn_Blade.dat" BldFile     - Name of file containing properties for blade (quoted string)
---------------------- PITCH ACTUATOR PARAMETERS -------------------------------
False                  UsePitchAct - Whether a pitch actuator should be used (flag)
200.0                  PitchJ      - Pitch actuator inertia (kg-m^2) [used only when UsePitchAct is true]
20000000.0             PitchK      - Pitch actuator stiffness (kg-m^2/s^2) [used only when UsePitchAct is true]
500000.0               PitchC      - Pitch actuator damping (kg-m^2/s) [used only when UsePitchAct is true]
---------------------- OUTPUTS -------------------------------------------------
True                   SumPrint    - Print summary data to "<RootName>.sum" (flag)
"ES10.3E2"             OutFmt      - Format used for text tabular output, excluding the time channel.
9                      NNodeOuts   - Number of nodes to output to file [0 - 9] (-)
3, 6, 9, 12, 15, 18, 21, 24, 27     OutNd          - Nodes whose values will be output  (-) OutNd       - Nodes whose values will be output  (-) OutNd       - Nodes whose values will be output  (-) OutNd       - Nodes whose values will be output  (-) OutNd       - Nodes whose values will be output  (-) OutNd       - Nodes whose values will be output  (-) OutNd       - Nodes whose values will be output  (-) OutNd       - Nodes whose values will be output  (-) OutNd       - Nodes whose values will be output  (-) OutNd       - Nodes whose values will be output  (-)
          OutList            - The next line(s) contains a list of output parameters. See OutListParameters.xlsx for a listing of available output channels, (-)
"N1Fxl"
"N1Fyl"
"N1Fzl"
"N1Mxl"
"N1Myl"
"N1Mzl"
"N1RDxr"
"N1RDyr"
"N1RDzr"
"N1TDxr"
"N1TDyr"
"N1TDzr"
"N2Fxl"
"N2Fyl"
"N2Fzl"
"N2Mxl"
"N2Myl"
"N2Mzl"
"N2RDxr"
"N2RDyr"
"N2RDzr"
"N2TDxr"
"N2TDyr"
"N2TDzr"
"N3Fxl"
"N3Fyl"
"N3Fzl"
"N3Mxl"
"N3Myl"
"N3Mzl"
"N3RDxr"
"N3RDyr"
"N3RDzr"
"N3TDxr"
"N3TDyr"
"N3TDzr"
"N4Fxl"
"N4Fyl"
"N4Fzl"
"N4Mxl"
"N4Myl"
"N4Mzl"
"N4RDxr"
"N4RDyr"
"N4RDzr"
"N4TDxr"
"N4TDyr"
"N4TDzr"
"N5Fxl"
"N5Fyl"
"N5Fzl"
"N5Mxl"
"N5Myl"
"N5Mzl"
"N5RDxr"
"N5RDyr"
"N5RDzr"
"N5TDxr"
"N5TDyr"
"N5TDzr"
"N6Fxl"
"N6Fyl"
"N6Fzl"
"N6Mxl"
"N6Myl"
"N6Mzl"
"N6RDxr"
"N6RDyr"
"N6RDzr"
"N6TDxr"
"N6TDyr"
"N6TDzr"
"N7Fxl"
"N7Fyl"
"N7Fzl"
"N7Mxl"
"N7Myl"
"N7Mzl"
"N7RDxr"
"N7RDyr"
"N7RDzr"
"N7TDxr"
"N7TDyr"
"N7TDzr"
"N8Fxl"
"N8Fyl"
"N8Fzl"
"N8Mxl"
"N8Myl"
"N8Mzl"
"N8RDxr"
"N8RDyr"
"N8RDzr"
"N8TDxr"
"N8TDyr"
"N8TDzr"
"N9Fxl"
"N9Fyl"
"N9Fzl"
"N9Mxl"
"N9Myl"
"N9Mzl"
"N9RDxr"
"N9RDyr"
"N9RDzr"
"N9TDxr"
"N9TDyr"
"N9TDzr"
"RootFxr"
"RootFyr"
"RootFzr"
"RootMxr"
"RootMyr"
"RootMzr"
"TipRDxr"
"TipRDyr"
"TipRDzr"
"TipTDxr"
"TipTDyr"
"TipTDzr"
END of input file (the word "END" must appear in the first 3 columns of this last OutList line)---------------------------------------------------------------------------------------